/*--------------------------------*- C++ -*----------------------------------*\
| =========                 |                                                 |
| \\      /  F ield         | OpenFOAM: The Open Source CFD Toolbox           |
|  \\    /   O peration     | Version:  6                                     |
|   \\  /    A nd           | Web:      www.OpenFOAM.com                      |
|    \\/     M anipulation  |                                                 |
\*---------------------------------------------------------------------------*/
FoamFile
{
    version     2.0;
    format      ascii;
    class       dictionary;
    object      controlDict;
}
// * * * * * * * * * * * * * * * * * * * * * * * * * * * * * * * * * * * * * //

application     pisoFoam;

//startFrom       startTime;
startFrom       latestTime;

startTime       0;

stopAt          endTime;

endTime         30; //350;

deltaT          0.05;

writeControl    runTime;

writeInterval   0.05;

purgeWrite      0;

writeFormat     ascii;

writePrecision  8;

writeCompression off;

timeFormat      general;

timePrecision   6;

runTimeModifiable true;

// ************************************************************************* //
functions
{
    internalSf
    {
        type            surfaceFieldValue;
        libs            ("libfieldFunctionObjects.so");
        
        // Required settings
        operation       none;
        writeFields     yes;
        log             true;
        
        // Target internal faces
        surfaceType     internal;
        fields         (mesh.Sf);
        
        // Output control
        writeControl    timeStep;
        writeInterval   1;
    }
}