/*--------------------------------*- C++ -*----------------------------------*\
| =========                 |                                                 |
| \\      /  F ield         | OpenFOAM: The Open Source CFD Toolbox           |
|  \\    /   O peration     | Version:  v2012                                 |
|   \\  /    A nd           | Website:  www.openfoam.com                      |
|    \\/     M anipulation  |                                                 |
\*---------------------------------------------------------------------------*/
FoamFile
{
    version     2.0;
    format      ascii;
    class       surfaceVectorField;
    location    "constant/polyMesh";
    object      S;
}
// * * * * * * * * * * * * * * * * * * * * * * * * * * * * * * * * * * * * * //

dimensions      [0 2 0 0 0 0 0];
oriented        oriented;


internalField   nonuniform List<vector> 
18180
(
(0.05709183 0.061573559 0)
(-0.052703204 0.044995764 1.0842022e-19)
(0.048910596 -0.048910596 0)
(0.061025352 0.065633848 -2.1684043e-19)
(-0.054661393 0.046667583 0)
(0.050727872 -0.050727872 0)
(0.065105024 0.069844996 0)
(-0.05669234 0.048401519 -1.0842022e-19)
(0.052612668 -0.052612668 0)
(0.069336276 0.07421261 2.1684043e-19)
(-0.058798746 0.05019988 0)
(0.054567494 -0.054567494 0)
(0.073724741 0.078742504 0)
(-0.060983416 0.052065058 0)
(0.056594952 -0.056594952 0)
(0.07827626 0.083440705 0)
(-0.063249258 0.053999538 0)
(0.058697739 -0.058697739 0)
(0.08299689 0.088313468 0)
(-0.065599287 0.056005894 0)
(0.060878657 -0.060878657 0)
(0.087892917 0.093367279 4.3368087e-19)
(-0.068036632 0.058086794 0)
(0.063140605 -0.063140605 0)
(0.092970854 0.098608864 4.3368087e-19)
(-0.070564535 0.060245013 0)
(0.065486598 -0.065486598 0)
(0.098237463 0.1040452 0)
(-0.073186364 0.062483418 0)
(0.067919755 -0.067919755 0)
(0.10369975 0.10968352 0)
(-0.075905607 0.064804993 -2.1684043e-19)
(0.070443317 -0.070443317 0)
(0.10936499 0.11553134 4.3368087e-19)
(-0.078725882 0.067212824 0)
(0.073060641 -0.073060641 0)
(0.11524073 0.12159643 4.3368087e-19)
(-0.081650947 0.069710121 0)
(0.075775213 -0.075775213 0)
(0.12133478 0.12788687 0)
(-0.084684691 0.072300203 0)
(0.078590644 -0.078590644 0)
(0.12765525 0.13441104 0)
(-0.087831154 0.07498652 0)
(0.081510683 -0.081510683 0)
(0.13421055 0.14117761 8.6736174e-19)
(-0.091094525 0.077772648 2.1684043e-19)
(0.084539216 -0.084539216 0)
(0.14100943 0.14819559 -8.6736174e-19)
(-0.094479146 0.080662294 0)
(0.087680274 -0.087680274 0)
(0.14806091 0.15547432 -8.6736174e-19)
(-0.097989523 0.083659305 4.3368087e-19)
(0.090938039 -0.090938039 0)
(0.15537439 0.1630235 0)
(-0.10163033 0.08676767 -4.3368087e-19)
(0.094316846 -0.094316846 0)
(-0.10540641 0.089991527 4.3368087e-19)
(0.097821192 -0.097821192 0)
(0.16295961 0.17085316 0)
(0.052062795 0.065880994 -1.0842022e-19)
(-0.056154942 0.040777571 1.0842022e-19)
(0.055642782 0.070255914 0)
(-0.058241381 0.042292663 0)
(0.059355785 0.074793384 0)
(-0.060405343 0.043864049 1.0842022e-19)
(0.063206744 0.079499444 0)
(-0.062649706 0.04549382 0)
(0.067200786 0.084380358 0)
(-0.064977458 0.047184145 0)
(0.071343227 0.089442622 0)
(-0.067391699 0.048937274 0)
(0.07563958 0.094692976 0)
(-0.06989564 0.05075554 0)
(0.080095564 0.10013841 -4.3368087e-19)
(-0.072492616 0.052641365 1.0842022e-19)
(0.084717111 0.10578616 0)
(-0.075186082 0.054597257 0)
(0.089510372 0.11164376 4.3368087e-19)
(-0.077979625 0.05662582 -2.1684043e-19)
(0.094481726 0.117719 0)
(-0.080876961 0.058729755 0)
(0.099637792 0.12401996 0)
(-0.083881948 0.060911862 2.1684043e-19)
(0.10498543 0.13055503 0)
(-0.086998585 0.063175045 -2.1684043e-19)
(0.11053176 0.13733292 -4.3368087e-19)
(-0.090231022 0.065522316 2.1684043e-19)
(0.11628417 0.14436264 8.6736174e-19)
(-0.093583559 0.067956801 2.1684043e-19)
(0.1222503 0.15165355 0)
(-0.097060661 0.070481739 0)
(0.12843811 0.15921535 0)
(-0.10066695 0.073100491 -2.1684043e-19)
(0.13485583 0.16705811 8.6736174e-19)
(-0.10440724 0.075816543 -4.3368087e-19)
(0.14151199 0.17519227 0)
(-0.10828649 0.07863351 0)
(-0.11230988 0.081555142 0)
(0.14841547 0.18362866 0)
(0.046709915 0.069778711 0)
(-0.059241671 0.036285562 0)
(0.049911332 0.074437621 0)
(-0.061442798 0.037633754 -1.0842022e-19)
(0.053231698 0.079269633 2.1684043e-19)
(-0.063725708 0.039032037 0)
(0.056675432 0.084281178 0)
(-0.06609344 0.040482274 0)
(0.060247118 0.089478928 0)
(-0.068549144 0.041986395 0)
(0.06395151 0.0948698 0)
(-0.071096091 0.043546401 0)
(0.06779354 0.10046097 0)
(-0.07373767 0.04516437 0)
(0.07177832 0.10625988 0)
(-0.076477396 0.046842454 0)
(0.075911154 0.11227425 0)
(-0.079318916 0.048582888 0)
(0.080197544 0.11851208 0)
(-0.082266015 0.050387987 0)
(0.084643195 0.12498168 0)
(-0.085322612 0.052260154 -2.1684043e-19)
(0.089254025 0.13169166 -4.3368087e-19)
(-0.088492778 0.054201884 -2.1684043e-19)
(0.094036171 0.13865095 0)
(-0.091780731 0.056215756 2.1684043e-19)
(0.098995996 0.14586881 4.3368087e-19)
(-0.095190847 0.058304456 0)
(0.1041401 0.15335485 0)
(-0.098727668 0.06047076 2.1684043e-19)
(0.10947534 0.16111904 -8.6736174e-19)
(-0.1023959 0.062717554 -2.1684043e-19)
(0.11500881 0.1691717 -8.6736174e-19)
(-0.10620042 0.065047827 0)
(0.12074788 0.17752356 8.6736174e-19)
(-0.11014631 0.067464682 0)
(0.12670018 0.18618574 0)
(-0.11423879 0.069971336 -4.3368087e-19)
(-0.11848334 0.072571124 0)
(0.13287364 0.19516975 0)
(0.041066493 0.073242459 0)
(-0.061941802 0.031551191 0)
(0.043866946 0.078152736 0)
(-0.064243252 0.032723477 1.0842022e-19)
(0.046771451 0.083245454 1.0842022e-19)
(-0.066630213 0.033939319 1.0842022e-19)
(0.049783872 0.088527393 -2.1684043e-19)
(-0.069105861 0.035200336 0)
(0.052908221 0.094005582 -2.1684043e-19)
(-0.071673493 0.036508206 0)
(0.056148655 0.099687314 2.1684043e-19)
(-0.074336525 0.03786467 0)
(0.059509486 0.10558015 0)
(-0.077098501 0.039271533 0)
(0.06299519 0.11169194 0)
(-0.0799631 0.040730669 1.0842022e-19)
(0.066610406 0.1180308 0)
(-0.082934132 0.042244019 0)
(0.070359945 0.12460519 0)
(-0.086015554 0.043813597 -1.0842022e-19)
(0.074248798 0.13142386 4.3368087e-19)
(-0.089211465 0.045441493 0)
(0.078282141 0.13849587 -4.3368087e-19)
(-0.092526121 0.047129874 -2.1684043e-19)
(0.082465344 0.14583064 -4.3368087e-19)
(-0.095963934 0.048880986 -2.1684043e-19)
(0.086803974 0.15343793 0)
(-0.099529477 0.050697161 0)
(0.091303806 0.16132787 -4.3368087e-19)
(-0.1032275 0.052580817 0)
(0.095970829 0.16951097 0)
(-0.10706292 0.05453446 0)
(0.10081126 0.1779981 0)
(-0.11104085 0.05656069 0)
(0.10583153 0.18680058 0)
(-0.11516658 0.058662204 0)
(0.11103833 0.19593012 0)
(-0.1194456 0.060841802 -2.1684043e-19)
(-0.1238836 0.063102381 0)
(0.11643859 0.20539886 0)
(0.035167638 0.076250684 1.0842022e-19)
(-0.064236443 0.026607603 0)
(0.037547536 0.081377951 1.0842022e-19)
(-0.066623151 0.02759621 -5.4210109e-20)
(0.04001586 0.086695722 0)
(-0.069098537 0.028621548 0)
(0.042575894 0.092211075 0)
(-0.071665895 0.029684983 0)
(0.045231047 0.097931351 0)
(-0.074328646 0.03078793 -1.0842022e-19)
(0.047984851 0.10386416 -2.1684043e-19)
(-0.077090329 0.031931856 1.0842022e-19)
(0.050840974 0.11001741 2.1684043e-19)
(-0.079954624 0.033118286 -1.0842022e-19)
(0.053803216 0.11639928 0)
(-0.082925342 0.034348797 0)
(0.05687552 0.12301827 2.1684043e-19)
(-0.086006436 0.035625029 0)
(0.060061976 0.12988319 0)
(-0.08920201 0.036948678 0)
(0.063366825 0.13700318 0)
(-0.092516314 0.038321508 0)
(0.066794465 0.14438771 0)
(-0.095953761 0.039745345 1.0842022e-19)
(0.070349459 0.15204661 0)
(-0.099518928 0.041222085 0)
(0.074036541 0.15999007 4.3368087e-19)
(-0.10321656 0.042753694 0)
(0.077860615 0.16822868 0)
(-0.10705157 0.044342209 0)
(0.081826773 0.1767734 -4.3368087e-19)
(-0.11102908 0.045989746 0)
(0.085940293 0.18563559 0)
(-0.11515437 0.047698497 0)
(0.090206651 0.19482706 0)
(-0.11943294 0.049470736 -2.1684043e-19)
(0.094631527 0.20436004 0)
(-0.12387047 0.051308824 0)
(-0.12847288 0.053215206 0)
(0.099220809 0.21424721 8.6736174e-19)
(0.02905005 0.078784669 1.0842022e-19)
(-0.066109536 0.021489404 0)
(0.030992739 0.084093035 0)
(-0.068565839 0.022287844 5.4210109e-20)
(0.033007607 0.089598633 0)
(-0.071113405 0.02311595 0)
(0.035097339 0.095308792 1.0842022e-19)
(-0.073755627 0.023974824 5.4210109e-20)
(0.037264714 0.10123111 0)
(-0.076496021 0.024865609 -5.4210109e-20)
(0.039512618 0.10737348 0)
(-0.079338233 0.025789492 0)
(0.041844044 0.11374406 -2.1684043e-19)
(-0.08228605 0.026747702 1.0842022e-19)
(0.044262093 0.12035134 0)
(-0.085343391 0.027741514 -1.0842022e-19)
(0.046769985 0.12720412 0)
(-0.088514328 0.028772251 1.0842022e-19)
(0.049371058 0.13431152 0)
(-0.091803083 0.029841285 -1.0842022e-19)
(0.052068774 0.14168298 -2.1684043e-19)
(-0.09521403 0.03095004 0)
(0.054866725 0.14932834 -4.3368087e-19)
(-0.098751712 0.03209999 0)
(0.057768632 0.15725776 0)
(-0.10242084 0.033292666 1.0842022e-19)
(0.06077836 0.16548179 4.3368087e-19)
(-0.10622629 0.034529657 1.0842022e-19)
(0.063899915 0.1740114 -4.3368087e-19)
(-0.11017313 0.035812608 2.1684043e-19)
(0.067137451 0.18285792 0)
(-0.11426662 0.037143227 0)
(0.070495279 0.19203313 0)
(-0.1185122 0.038523285 0)
(0.073977867 0.20154924 -4.3368087e-19)
(-0.12291552 0.039954619 2.1684043e-19)
(0.077589849 0.21141893 -8.6736174e-19)
(-0.12748245 0.041439135 -2.1684043e-19)
(-0.13221907 0.042978808 0)
(0.081336036 0.22165533 0)
(0.022751792 0.080828649 0)
(-0.067547966 0.016232419 -5.4210109e-20)
(0.024243668 0.086280958 0)
(-0.070057715 0.016835535 5.4210109e-20)
(0.025790974 0.091935847 0)
(-0.072660711 0.01746106 -5.4210109e-20)
(0.027395771 0.097800844 -1.0842022e-19)
(-0.075360424 0.018109827 0)
(0.029060193 0.10388375 0)
(-0.078160443 0.018782698 0)
(0.030786458 0.11019268 1.0842022e-19)
(-0.081064498 0.01948057 0)
(0.032576862 0.11673601 0)
(-0.084076454 0.020204372 0)
(0.034433788 0.12352245 -2.1684043e-19)
(-0.087200317 0.020955066 0)
(0.036359709 0.13056105 0)
(-0.090440249 0.021733652 1.0842022e-19)
(0.038357187 0.13786117 2.1684043e-19)
(-0.093800561 0.022541167 0)
(0.040428882 0.14543253 -2.1684043e-19)
(-0.097285725 0.023378685 -1.0842022e-19)
(0.04257755 0.15328519 0)
(-0.10090038 0.024247321 0)
(0.044806053 0.16142963 -2.1684043e-19)
(-0.10464934 0.025148232 0)
(0.047117355 0.16987667 0)
(-0.10853759 0.026082615 0)
(0.049514534 0.17863756 0)
(-0.11257031 0.027051716 0)
(0.052000781 0.18772396 4.3368087e-19)
(-0.11675286 0.028056824 0)
(0.054579404 0.19714797 4.3368087e-19)
(-0.12109082 0.029099276 0)
(0.057253835 0.20692213 0)
(-0.12558996 0.030180461 0)
(0.060027636 0.21705945 0)
(-0.13025626 0.031301818 0)
(-0.13509593 0.032464838 0)
(0.062904497 0.22757342 0)
(0.01631205 0.082369908 0)
(-0.068541654 0.010873443 0)
(0.017342658 0.087927997 -5.4210109e-20)
(-0.071088323 0.011277446 -2.7105054e-20)
(0.018411559 0.093692598 0)
(-0.073729612 0.01169646 0)
(0.019520174 0.099671382 5.4210109e-20)
(-0.076469039 0.012131042 -2.7105054e-20)
(0.020669981 0.10587231 -1.0842022e-19)
(-0.07931025 0.012581772 0)
(0.021862509 0.11230363 0)
(-0.082257026 0.013049248 0)
(0.023099344 0.11897391 0)
(-0.085313289 0.013534094 0)
(0.024382135 0.12589202 0)
(-0.088483108 0.014036954 0)
(0.025712588 0.13306718 0)
(-0.091770702 0.014558497 0)
(0.027092474 0.14050892 0)
(-0.095180447 0.015099419 0)
(0.028523629 0.14822717 2.1684043e-19)
(-0.09871688 0.015660438 0)
(0.030007959 0.15623219 -2.1684043e-19)
(-0.10238471 0.016242303 0)
(0.03154744 0.16453464 2.1684043e-19)
(-0.10618882 0.016845786 0)
(0.03314412 0.17314556 0)
(-0.11013427 0.017471692 0)
(0.034800125 0.18207642 0)
(-0.11422631 0.018120853 0)
(0.036517658 0.19133911 0)
(-0.1184704 0.018794135 0)
(0.038299006 0.20094596 0)
(-0.12287217 0.019492431 0)
(0.040146541 0.21090974 -4.3368087e-19)
(-0.12743749 0.020216674 0)
(0.042062721 0.22124374 0)
(-0.13217244 0.020967825 1.0842022e-19)
(-0.13708331 0.021746885 0)
(0.044050097 0.23196169 0)
(0.00977089 0.083398859 2.7105054e-20)
(-0.069083625 0.0054499831 0)
(0.010332996 0.089023828 0)
(-0.071650429 0.0056524774 0)
(0.010915989 0.094857792 0)
(-0.074312605 0.0058624955 0)
(0.011520642 0.10090852 -5.4210109e-20)
(-0.077073692 0.0060803168 1.3552527e-20)
(0.012147761 0.10718406 0)
(-0.079937369 0.0063062311 -2.7105054e-20)
(0.012798181 0.11369277 5.4210109e-20)
(-0.082907446 0.0065405395 0)
(0.013472767 0.12044331 0)
(-0.085987875 0.0067835536 0)
(0.014172418 0.12744466 -5.4210109e-20)
(-0.089182759 0.0070355967 2.7105054e-20)
(0.014898064 0.13470616 0)
(-0.092496348 0.0072970047 -2.7105054e-20)
(0.015650671 0.14223745 0)
(-0.095933054 0.0075681252 0)
(0.016431242 0.15004857 1.0842022e-19)
(-0.099497451 0.0078493193 0)
(0.017240815 0.15814991 0)
(-0.10319428 0.008140961 -2.7105054e-20)
(0.018080467 0.16655226 -1.0842022e-19)
(-0.10702847 0.0084434388 0)
(0.018951317 0.17526679 0)
(-0.11100512 0.0087571552 2.7105054e-20)
(0.019854523 0.18430512 1.0842022e-19)
(-0.11512952 0.0090825276 -5.4210109e-20)
(0.020791289 0.19367927 0)
(-0.11940716 0.0094199894 0)
(0.021762859 0.20340171 0)
(-0.12384374 0.0097699895 0)
(0.022770529 0.21348539 0)
(-0.12844516 0.010132994 0)
(0.023815638 0.22394373 -2.1684043e-19)
(-0.13321754 0.010509486 0)
(-0.13816725 0.010899966 0)
(0.024899578 0.23479065 0)
(0.003169008 0.083909103 0)
(-0.069170056 0 0)
(0.003258651 0.089561581 0)
(-0.071740072 0 0)
(0.003351624 0.095424076 0)
(-0.074405578 0 0)
(0.003448053 0.10150439 1.3552527e-20)
(-0.077170121 0 0)
(0.003548064 0.10781062 -1.3552527e-20)
(-0.08003738 0 0)
(0.00365179 0.11435116 -1.3552527e-20)
(-0.083011172 0 0)
(0.003759371 0.12113472 0)
(-0.086095456 0 0)
(0.003870948 0.12817031 0)
(-0.089294336 0 0)
(0.003986672 0.13546732 2.7105054e-20)
(-0.092612072 0 0)
(0.004106695 0.14303544 0)
(-0.096053077 0 0)
(0.004231177 0.15088476 0)
(-0.099621933 0 0)
(0.004360285 0.15902572 0)
(-0.10332339 0 0)
(0.00449419 0.16746916 0)
(-0.10716238 0 0)
(0.00463307 0.17622632 0)
(-0.111144 0 0)
(0.00477711 0.18530885 0)
(-0.11527356 0 0)
(0.004926502 0.19472884 0)
(-0.11955655 0 0)
(0.005081445 0.20449882 0)
(-0.12399868 0 0)
(0.005242144 0.21463182 0)
(-0.12860586 0 0)
(0.005408814 0.2251413 0)
(-0.13338421 0 0)
(0.005581677 0.23604127 -5.4210109e-20)
(-0.13834011 0 0)
(0.083909103 0.003169008 0)
(-0.0054499831 0.069083625 0)
(0 -0.069170056 0)
(0.089561581 0.003258651 0)
(-0.0056524774 0.071650429 0)
(0 -0.071740072 0)
(0.095424076 0.003351624 0)
(-0.0058624955 0.074312605 0)
(0 -0.074405578 0)
(0.10150439 0.003448053 -1.3552527e-20)
(-0.0060803168 0.077073692 -1.3552527e-20)
(0 -0.077170121 0)
(0.10781062 0.003548064 1.3552527e-20)
(-0.0063062311 0.079937369 2.7105054e-20)
(0 -0.08003738 0)
(0.11435116 0.00365179 1.3552527e-20)
(-0.0065405395 0.082907446 0)
(0 -0.083011172 0)
(0.12113472 0.003759371 0)
(-0.0067835536 0.085987875 0)
(0 -0.086095456 0)
(0.12817031 0.003870948 0)
(-0.0070355967 0.089182759 -2.7105054e-20)
(0 -0.089294336 0)
(0.13546732 0.003986672 -2.7105054e-20)
(-0.0072970047 0.092496348 2.7105054e-20)
(0 -0.092612072 0)
(0.14303544 0.004106695 0)
(-0.0075681252 0.095933054 0)
(0 -0.096053077 0)
(0.15088476 0.004231177 0)
(-0.0078493193 0.099497451 0)
(0 -0.099621933 0)
(0.15902572 0.004360285 0)
(-0.008140961 0.10319428 2.7105054e-20)
(0 -0.10332339 0)
(0.16746916 0.00449419 0)
(-0.0084434388 0.10702847 0)
(0 -0.10716238 0)
(0.17622632 0.00463307 0)
(-0.0087571552 0.11100512 -2.7105054e-20)
(0 -0.111144 0)
(0.18530885 0.00477711 0)
(-0.0090825276 0.11512952 5.4210109e-20)
(0 -0.11527356 0)
(0.19472884 0.004926502 0)
(-0.0094199894 0.11940716 0)
(0 -0.11955655 0)
(0.20449882 0.005081445 0)
(-0.0097699895 0.12384374 0)
(0 -0.12399868 0)
(0.21463182 0.005242144 0)
(-0.010132994 0.12844516 0)
(0 -0.12860586 0)
(0.2251413 0.005408814 0)
(-0.010509486 0.13321754 0)
(0 -0.13338421 0)
(-0.010899966 0.13816725 0)
(0.23604127 0.005581677 5.4210109e-20)
(0 -0.13834011 0)
(0.083398859 0.00977089 -2.7105054e-20)
(-0.010873443 0.068541654 0)
(0.089023828 0.010332996 0)
(-0.011277446 0.071088323 2.7105054e-20)
(0.094857792 0.010915989 0)
(-0.01169646 0.073729612 0)
(0.10090852 0.011520642 5.4210109e-20)
(-0.012131042 0.076469039 2.7105054e-20)
(0.10718406 0.012147761 0)
(-0.012581772 0.07931025 0)
(0.11369277 0.012798181 -5.4210109e-20)
(-0.013049248 0.082257026 0)
(0.12044331 0.013472767 -5.4210109e-20)
(-0.013534094 0.085313289 0)
(0.12744466 0.014172418 5.4210109e-20)
(-0.014036954 0.088483108 0)
(0.13470616 0.014898064 0)
(-0.014558497 0.091770702 0)
(0.14223745 0.015650671 0)
(-0.015099419 0.095180447 0)
(0.15004857 0.016431242 0)
(-0.015660438 0.09871688 0)
(0.15814991 0.017240815 0)
(-0.016242303 0.10238471 0)
(0.16655226 0.018080467 1.0842022e-19)
(-0.016845786 0.10618882 0)
(0.17526679 0.018951317 0)
(-0.017471692 0.11013427 0)
(0.18430512 0.019854523 -1.0842022e-19)
(-0.018120853 0.11422631 0)
(0.19367927 0.020791289 0)
(-0.018794135 0.1184704 0)
(0.20340171 0.021762859 0)
(-0.019492431 0.12287217 0)
(0.21348539 0.022770529 0)
(-0.020216674 0.12743749 0)
(0.22394373 0.023815638 2.1684043e-19)
(-0.020967825 0.13217244 -1.0842022e-19)
(-0.021746885 0.13708331 0)
(0.23479065 0.024899578 0)
(0.082369908 0.01631205 0)
(-0.016232419 0.067547966 5.4210109e-20)
(0.087927997 0.017342658 5.4210109e-20)
(-0.016835535 0.070057715 -5.4210109e-20)
(0.093692598 0.018411559 0)
(-0.01746106 0.072660711 5.4210109e-20)
(0.099671382 0.019520174 -5.4210109e-20)
(-0.018109827 0.075360424 0)
(0.10587231 0.020669981 1.0842022e-19)
(-0.018782698 0.078160443 0)
(0.11230363 0.021862509 0)
(-0.01948057 0.081064498 0)
(0.11897391 0.023099344 0)
(-0.020204372 0.084076454 0)
(0.12589202 0.024382135 0)
(-0.020955066 0.087200317 0)
(0.13306718 0.025712588 0)
(-0.021733652 0.090440249 -1.0842022e-19)
(0.14050892 0.027092474 0)
(-0.022541167 0.093800561 0)
(0.14822717 0.028523629 -2.1684043e-19)
(-0.023378685 0.097285725 1.0842022e-19)
(0.15623219 0.030007959 2.1684043e-19)
(-0.024247321 0.10090038 0)
(0.16453464 0.03154744 -2.1684043e-19)
(-0.025148232 0.10464934 0)
(0.17314556 0.03314412 0)
(-0.026082615 0.10853759 0)
(0.18207642 0.034800125 0)
(-0.027051716 0.11257031 0)
(0.19133911 0.036517658 0)
(-0.028056824 0.11675286 0)
(0.20094596 0.038299006 0)
(-0.029099276 0.12109082 0)
(0.21090974 0.040146541 4.3368087e-19)
(-0.030180461 0.12558996 0)
(0.22124374 0.042062721 0)
(-0.031301818 0.13025626 0)
(-0.032464838 0.13509593 0)
(0.23196169 0.044050097 0)
(0.080828649 0.022751792 0)
(-0.021489404 0.066109536 0)
(0.086280958 0.024243668 0)
(-0.022287844 0.068565839 -5.4210109e-20)
(0.091935847 0.025790974 0)
(-0.02311595 0.071113405 0)
(0.097800844 0.027395771 1.0842022e-19)
(-0.023974824 0.073755627 -5.4210109e-20)
(0.10388375 0.029060193 0)
(-0.024865609 0.076496021 5.4210109e-20)
(0.11019268 0.030786458 0)
(-0.025789492 0.079338233 0)
(0.11673601 0.032576862 0)
(-0.026747702 0.08228605 -1.0842022e-19)
(0.12352245 0.034433788 0)
(-0.027741514 0.085343391 1.0842022e-19)
(0.13056105 0.036359709 0)
(-0.028772251 0.088514328 -1.0842022e-19)
(0.13786117 0.038357187 -2.1684043e-19)
(-0.029841285 0.091803083 1.0842022e-19)
(0.14543253 0.040428882 2.1684043e-19)
(-0.03095004 0.09521403 0)
(0.15328519 0.04257755 0)
(-0.03209999 0.098751712 0)
(0.16142963 0.044806053 2.1684043e-19)
(-0.033292666 0.10242084 -1.0842022e-19)
(0.16987667 0.047117355 0)
(-0.034529657 0.10622629 -1.0842022e-19)
(0.17863756 0.049514534 0)
(-0.035812608 0.11017313 -2.1684043e-19)
(0.18772396 0.052000781 -4.3368087e-19)
(-0.037143227 0.11426662 0)
(0.19714797 0.054579404 -4.3368087e-19)
(-0.038523285 0.1185122 0)
(0.20692213 0.057253835 0)
(-0.039954619 0.12291552 -2.1684043e-19)
(0.21705945 0.060027636 0)
(-0.041439135 0.12748245 2.1684043e-19)
(-0.042978808 0.13221907 0)
(0.22757342 0.062904497 0)
(0.078784669 0.02905005 -1.0842022e-19)
(-0.026607603 0.064236443 0)
(0.084093035 0.030992739 0)
(-0.02759621 0.066623151 5.4210109e-20)
(0.089598633 0.033007607 0)
(-0.028621548 0.069098537 0)
(0.095308792 0.035097339 -1.0842022e-19)
(-0.029684983 0.071665895 0)
(0.10123111 0.037264714 0)
(-0.03078793 0.074328646 1.0842022e-19)
(0.10737348 0.039512618 0)
(-0.031931856 0.077090329 -1.0842022e-19)
(0.11374406 0.041844044 2.1684043e-19)
(-0.033118286 0.079954624 1.0842022e-19)
(0.12035134 0.044262093 -2.1684043e-19)
(-0.034348797 0.082925342 0)
(0.12720412 0.046769985 0)
(-0.035625029 0.086006436 0)
(0.13431152 0.049371058 0)
(-0.036948678 0.08920201 0)
(0.14168298 0.052068774 2.1684043e-19)
(-0.038321508 0.092516314 0)
(0.14932834 0.054866725 4.3368087e-19)
(-0.039745345 0.095953761 -1.0842022e-19)
(0.15725776 0.057768632 0)
(-0.041222085 0.099518928 0)
(0.16548179 0.06077836 -4.3368087e-19)
(-0.042753694 0.10321656 0)
(0.1740114 0.063899915 4.3368087e-19)
(-0.044342209 0.10705157 0)
(0.18285792 0.067137451 0)
(-0.045989746 0.11102908 0)
(0.19203313 0.070495279 0)
(-0.047698497 0.11515437 0)
(0.20154924 0.073977867 4.3368087e-19)
(-0.049470736 0.11943294 2.1684043e-19)
(0.21141893 0.077589849 8.6736174e-19)
(-0.051308824 0.12387047 0)
(-0.053215206 0.12847288 0)
(0.22165533 0.081336036 0)
(0.076250684 0.035167638 -1.0842022e-19)
(-0.031551191 0.061941802 0)
(0.081377951 0.037547536 0)
(-0.032723477 0.064243252 -1.0842022e-19)
(0.086695722 0.04001586 0)
(-0.033939319 0.066630213 -1.0842022e-19)
(0.092211075 0.042575894 0)
(-0.035200336 0.069105861 0)
(0.097931351 0.045231047 0)
(-0.036508206 0.071673493 0)
(0.10386416 0.047984851 2.1684043e-19)
(-0.03786467 0.074336525 0)
(0.11001741 0.050840974 -2.1684043e-19)
(-0.039271533 0.077098501 0)
(0.11639928 0.053803216 0)
(-0.040730669 0.0799631 -1.0842022e-19)
(0.12301827 0.05687552 -2.1684043e-19)
(-0.042244019 0.082934132 0)
(0.12988319 0.060061976 0)
(-0.043813597 0.086015554 1.0842022e-19)
(0.13700318 0.063366825 0)
(-0.045441493 0.089211465 0)
(0.14438771 0.066794465 0)
(-0.047129874 0.092526121 2.1684043e-19)
(0.15204661 0.070349459 0)
(-0.048880986 0.095963934 2.1684043e-19)
(0.15999007 0.074036541 -4.3368087e-19)
(-0.050697161 0.099529477 0)
(0.16822868 0.077860615 0)
(-0.052580817 0.1032275 0)
(0.1767734 0.081826773 4.3368087e-19)
(-0.05453446 0.10706292 0)
(0.18563559 0.085940293 0)
(-0.05656069 0.11104085 0)
(0.19482706 0.090206651 0)
(-0.058662204 0.11516658 0)
(0.20436004 0.094631527 0)
(-0.060841802 0.1194456 2.1684043e-19)
(-0.063102381 0.1238836 0)
(0.21424721 0.099220809 -8.6736174e-19)
(0.073242459 0.041066493 0)
(-0.036285562 0.059241671 0)
(0.078152736 0.043866946 0)
(-0.037633754 0.061442798 1.0842022e-19)
(0.083245454 0.046771451 -1.0842022e-19)
(-0.039032037 0.063725708 0)
(0.088527393 0.049783872 2.1684043e-19)
(-0.040482274 0.06609344 0)
(0.094005582 0.052908221 2.1684043e-19)
(-0.041986395 0.068549144 0)
(0.099687314 0.056148655 -2.1684043e-19)
(-0.043546401 0.071096091 0)
(0.10558015 0.059509486 -2.1684043e-19)
(-0.04516437 0.07373767 0)
(0.11169194 0.06299519 0)
(-0.046842454 0.076477396 0)
(0.1180308 0.066610406 0)
(-0.048582888 0.079318916 0)
(0.12460519 0.070359945 0)
(-0.050387987 0.082266015 0)
(0.13142386 0.074248798 -4.3368087e-19)
(-0.052260154 0.085322612 2.1684043e-19)
(0.13849587 0.078282141 4.3368087e-19)
(-0.054201884 0.088492778 2.1684043e-19)
(0.14583064 0.082465344 4.3368087e-19)
(-0.056215756 0.091780731 -2.1684043e-19)
(0.15343793 0.086803974 0)
(-0.058304456 0.095190847 0)
(0.16132787 0.091303806 4.3368087e-19)
(-0.06047076 0.098727668 -2.1684043e-19)
(0.16951097 0.095970829 0)
(-0.062717554 0.1023959 2.1684043e-19)
(0.1779981 0.10081126 0)
(-0.065047827 0.10620042 0)
(0.18680058 0.10583153 0)
(-0.067464682 0.11014631 0)
(0.19593012 0.11103833 8.6736174e-19)
(-0.069971336 0.11423879 4.3368087e-19)
(-0.072571124 0.11848334 0)
(0.20539886 0.11643859 0)
(0.069778711 0.046709915 0)
(-0.040777571 0.056154942 -1.0842022e-19)
(0.074437621 0.049911332 0)
(-0.042292663 0.058241381 0)
(0.079269633 0.053231698 -2.1684043e-19)
(-0.043864049 0.060405343 -1.0842022e-19)
(0.084281178 0.056675432 0)
(-0.04549382 0.062649706 0)
(0.089478928 0.060247118 0)
(-0.047184145 0.064977458 0)
(0.0948698 0.06395151 2.1684043e-19)
(-0.048937274 0.067391699 0)
(0.10046097 0.06779354 0)
(-0.05075554 0.06989564 0)
(0.10625988 0.07177832 0)
(-0.052641365 0.072492616 -1.0842022e-19)
(0.11227425 0.075911154 0)
(-0.054597257 0.075186082 0)
(0.11851208 0.080197544 0)
(-0.05662582 0.077979625 2.1684043e-19)
(0.12498168 0.084643195 0)
(-0.058729755 0.080876961 0)
(0.13169166 0.089254025 4.3368087e-19)
(-0.060911862 0.083881948 -2.1684043e-19)
(0.13865095 0.094036171 0)
(-0.063175045 0.086998585 2.1684043e-19)
(0.14586881 0.098995996 -4.3368087e-19)
(-0.065522316 0.090231022 -2.1684043e-19)
(0.15335485 0.1041401 -8.6736174e-19)
(-0.067956801 0.093583559 -2.1684043e-19)
(0.16111904 0.10947534 8.6736174e-19)
(-0.070481739 0.097060661 0)
(0.1691717 0.11500881 8.6736174e-19)
(-0.073100491 0.10066695 2.1684043e-19)
(0.17752356 0.12074788 -8.6736174e-19)
(-0.075816543 0.10440724 4.3368087e-19)
(0.18618574 0.12670018 0)
(-0.07863351 0.10828649 0)
(-0.081555142 0.11230988 0)
(0.19516975 0.13287364 0)
(0.065880994 0.052062795 1.0842022e-19)
(-0.044995764 0.052703204 -1.0842022e-19)
(0.070255914 0.055642782 0)
(-0.046667583 0.054661393 0)
(0.074793384 0.059355785 0)
(-0.048401519 0.05669234 1.0842022e-19)
(0.079499444 0.063206744 0)
(-0.05019988 0.058798746 0)
(0.084380358 0.067200786 0)
(-0.052065058 0.060983416 0)
(0.089442622 0.071343227 0)
(-0.053999538 0.063249258 0)
(0.094692976 0.07563958 0)
(-0.056005894 0.065599287 0)
(0.10013841 0.080095564 4.3368087e-19)
(-0.058086794 0.068036632 0)
(0.10578616 0.084717111 0)
(-0.060245013 0.070564535 0)
(0.11164376 0.089510372 0)
(-0.062483418 0.073186364 0)
(0.117719 0.094481726 0)
(-0.064804993 0.075905607 2.1684043e-19)
(0.12401996 0.099637792 0)
(-0.067212824 0.078725882 0)
(0.13055503 0.10498543 0)
(-0.069710121 0.081650947 0)
(0.13733292 0.11053176 4.3368087e-19)
(-0.072300203 0.084684691 0)
(0.14436264 0.11628417 -8.6736174e-19)
(-0.07498652 0.087831154 0)
(0.15165355 0.1222503 0)
(-0.077772648 0.091094525 -2.1684043e-19)
(0.15921535 0.12843811 8.6736174e-19)
(-0.080662294 0.094479146 0)
(0.16705811 0.13485583 -8.6736174e-19)
(-0.083659305 0.097989523 -4.3368087e-19)
(0.17519227 0.14151199 0)
(-0.08676767 0.10163033 4.3368087e-19)
(-0.089991527 0.10540641 -4.3368087e-19)
(0.18362866 0.14841547 0)
(0.061573559 0.05709183 -1.0842022e-19)
(0.065633848 0.061025352 2.1684043e-19)
(0.069844996 0.065105024 0)
(0.07421261 0.069336276 -2.1684043e-19)
(0.078742504 0.073724741 0)
(0.083440705 0.07827626 0)
(0.088313468 0.08299689 0)
(0.093367279 0.087892917 -4.3368087e-19)
(0.098608864 0.092970854 -4.3368087e-19)
(0.1040452 0.098237463 0)
(0.10968352 0.10369975 0)
(0.11553134 0.10936499 -4.3368087e-19)
(0.12159643 0.11524073 -4.3368087e-19)
(0.12788687 0.12133478 0)
(0.13441104 0.12765525 0)
(0.14117761 0.13421055 -8.6736174e-19)
(0.14819559 0.14100943 8.6736174e-19)
(0.15547432 0.14806091 8.6736174e-19)
(0.1630235 0.15537439 0)
(0.17085316 0.16295961 0)
(0.2358708 0.00554188 0)
(0.0001704732 0.19254996 1.6940659e-21)
(0 -0.19251016 0)
(0.23569397 0.005500601 0)
(0.0001768223 0.19972115 1.6940659e-21)
(0 -0.19967987 0)
(0.23551057 0.005457783 0)
(0.0001834076 0.20715943 -1.6940659e-21)
(0 -0.20711661 0)
(0.23532033 0.005413372 0)
(0.0001902384 0.21487473 1.6940659e-21)
(0 -0.21483032 0)
(0.23512301 0.005367306 0)
(0.0001973235 0.22287737 0)
(0 -0.2228313 0)
(0.23491833 0.005319525 -5.4210109e-20)
(0.0002046724 0.23117806 0)
(0 -0.23113028 0)
(0.23470604 0.005269964 0)
(0.0002122952 0.23978789 0)
(0 -0.23973833 0)
(0.23448584 0.005218558 -5.4210109e-20)
(0.0002202017 0.24871838 1.6940659e-21)
(0 -0.24866698 0)
(0.23425743 0.005165236 0)
(0.0002284027 0.25798148 0)
(0 -0.25792816 0)
(0.23402052 0.00510993 0)
(0.0002369092 0.26758956 -3.3881318e-21)
(0 -0.26753425 0)
(0.23377479 0.005052562 0)
(0.0002457325 0.27755548 0)
(0 -0.27749811 0)
(0.23351991 0.004993059 5.4210109e-20)
(0.0002548844 0.28789256 0)
(0 -0.28783305 0)
(0.23325553 0.00493134 -5.4210109e-20)
(0.0002643771 0.29861463 0)
(0 -0.29855291 0)
(0.23298131 0.004867322 5.4210109e-20)
(0.0002742234 0.30973602 3.3881318e-21)
(0 -0.309672 0)
(0.23269687 0.004800919 -5.4210109e-20)
(0.0002844364 0.32127161 0)
(0 -0.32120521 0)
(0.23240184 0.004732044 0)
(0.0002950297 0.33323683 0)
(0 -0.33316795 0)
(0.23209582 0.004660603 0)
(0.0003060176 0.34564767 0)
(0 -0.34557622 0)
(0.23177841 0.004586502 -5.4210109e-20)
(0.0003174147 0.35852072 -3.3881318e-21)
(0 -0.35844662 0)
(0.23144917 0.004509641 0)
(0.0003292363 0.37187322 0)
(0 -0.37179636 0)
(0.23110767 0.004429917 5.4210109e-20)
(0.0003414982 0.385723 0)
(0 -0.38564328 0)
(0.23075346 0.004347224 0)
(0.0003542166 0.4000886 0)
(0 -0.40000591 0)
(0.23038605 0.004261452 5.4210109e-20)
(0.0003674088 0.41498922 -6.7762636e-21)
(0 -0.41490345 0)
(0.23000496 0.004172485 0)
(0.0003810924 0.43044479 6.7762636e-21)
(0 -0.43035582 0)
(0.22960967 0.0040802 0)
(0.0003952855 0.44647597 0)
(0 -0.44638369 0)
(0.22919966 0.00398449 0)
(0.0004100072 0.46310421 0)
(0 -0.4630085 0)
(0.22877439 0.0038852 0)
(0.0004252773 0.48035174 0)
(0 -0.48025245 0)
(0.22833327 0.00378222 0)
(0.000441116 0.49824162 0)
(0 -0.49813864 0)
(0.22787573 0.00367541 2.7105054e-20)
(0.0004575446 0.51679778 0)
(0 -0.51669097 0)
(0.22740114 0.00356462 0)
(0.000474585 0.53604504 1.3552527e-20)
(0 -0.53593425 0)
(0.22690888 0.0034497 0)
(0.0004922602 0.55600912 0)
(0 -0.5558942 0)
(0.22639829 0.0033305 0)
(0.0005105936 0.57671674 -1.3552527e-20)
(0 -0.57659754 0)
(0.22586868 0.00320686 0)
(0.0005296097 0.59819557 0)
(0 -0.59807193 0)
(0.22531934 0.00307862 -2.7105054e-20)
(0.0005493342 0.62047435 1.3552527e-20)
(0 -0.62034611 0)
(0.22474955 0.00294559 0)
(0.0005697932 0.64358286 1.3552527e-20)
(0 -0.64344983 0)
(0.22415854 0.00280763 2.7105054e-20)
(0.0005910142 0.667552 0)
(0 -0.66741404 0)
(0.22354551 0.00266451 0)
(0.0006130255 0.69241385 -1.3552527e-20)
(0 -0.69227073 0)
(0.22290965 0.00251607 -2.7105054e-20)
(0.0006358565 0.71820162 0)
(0 -0.71805318 0)
(0.22225012 0.00236209 0)
(0.000659538 0.74494983 -2.7105054e-20)
(0 -0.74479585 0)
(0.22156601 0.0022024 1.3552527e-20)
(0.0006841014 0.7726942 -2.7105054e-20)
(0 -0.77253451 0)
(0.22085643 0.00203674 -1.3552527e-20)